minlp-notes/research-20261001/scip-set-selection/logs/screen/powerflow0014r.scip.s0.log
SCIP version 10.0.3 [precision: 8 byte] [memory: block] [mode: optimized] [LP solver: SoPlex 8.0.3] [GitHash: d409edf9f6]
Copyright (c) 2002-2026 Zuse Institute Berlin (ZIB)

External libraries: 
  Readline 8.3         GNU library for command line editing (gnu.org/s/readline)
  SoPlex 8.0.3         Linear programming solver developed at Zuse Institute Berlin (soplex.zib.de) [GitHash: 13e2ab24]
  CppAD 20180000.0     Algorithmic Differentiation of C++ algorithms developed by B. Bell (github.com/coin-or/CppAD)
  ZLIB 1.3.2           General purpose compression library by J. Gailly and M. Adler (zlib.net)
  LAPACK 3.12.0        General Linear Algebra PACKage (http://www.netlib.org/lapack/)
  MPFR 4.2.2           GNU Multiple Precision Floating-Point Reliable Library (mpfr.org)
  Boost 1.85.0         Boost C++ Libraries (boost.org)
  TinyCThread 1.2      small portable implementation of the C11 threads API (tinycthread.github.io)
  GMP 6.3.0            GNU Multiple Precision Arithmetic Library developed by T. Granlund (gmplib.org)
  AMPL/MP 4.0.4        AMPL .nl file reader library (github.com/ampl/mp)
  Nauty 2.8.8          Computing Graph Automorphism Groups by Brendan D. McKay (users.cecs.anu.edu.au/~bdm/nauty)
  sassy 2.1            Symmetry preprocessor by Markus Anders (github.com/markusa4/sassy)

user parameter file <scip.set> not found - using default parameters

table/nlhdlr_quadratic/active = TRUE
limits/memory = 6000
limits/time = 60
timing/clocktype = 1
nlhdlr/quadratic/useintersectioncuts = TRUE
limits/nodes = 1

read problem </workspace/local-home/.cache/minlplib/minlplib/osil/powerflow0014r.osil>
============

original problem has 119 variables (0 bin, 0 int, 119 cont) and 198 constraints

presolving:
(round 1, fast)       15 del vars, 69 del conss, 0 add conss, 366 chg bounds, 0 chg sides, 0 chg coeffs, 0 upgd conss, 0 impls, 0 clqs, 0 implints
(round 2, fast)       15 del vars, 71 del conss, 0 add conss, 394 chg bounds, 0 chg sides, 0 chg coeffs, 0 upgd conss, 0 impls, 0 clqs, 0 implints
   (0.0s) symmetry computation started: requiring (bin +, int +, cont +), (fixed: bin -, int -, cont -)
   (0.0s) no symmetry present (symcode time: 0.00)
presolving (3 rounds: 3 fast, 1 medium, 1 exhaustive):
 15 deleted vars, 71 deleted constraints, 0 added constraints, 394 tightened bounds, 0 added holes, 0 changed sides, 0 changed coefficients
 0 implications, 0 cliques, 0 implied integral variables (0 bin, 0 int, 0 cont)
presolved problem has 104 variables (0 bin, 0 int, 104 cont) and 113 constraints
     18 constraints of type <linear>
     95 constraints of type <nonlinear>
Presolving Time: 0.01

 time | node  | left  |LP iter|LP it/n|mem/heur|mdpt |vars |cons |rows |cuts |sepa|confs|strbr|  dualbound   | primalbound  |  gap   | compl. 
  0.0s|     1 |     0 |   226 |     - |  4317k |   0 | 306 | 113 | 333 |   0 |  0 |   0 |   0 |-1.000000e-09 |      --      |    Inf | unknown
  0.1s|     1 |     0 |   278 |     - |  5709k |   0 | 306 | 113 | 352 |  19 |  1 |   0 |   0 |-1.000000e-09 |      --      |    Inf | unknown
  0.1s|     1 |     0 |   324 |     - |  6200k |   0 | 306 | 113 | 371 |  38 |  2 |   0 |   0 |-1.000000e-09 |      --      |    Inf | unknown
  0.1s|     1 |     0 |   406 |     - |  7017k |   0 | 306 | 113 | 389 |  56 |  3 |   0 |   0 |-1.000000e-09 |      --      |    Inf | unknown
  0.2s|     1 |     0 |   538 |     - |  7341k |   0 | 306 | 113 | 404 |  71 |  4 |   0 |   0 |-1.000000e-09 |      --      |    Inf | unknown
  0.2s|     1 |     0 |   595 |     - |  7524k |   0 | 306 | 113 | 421 |  88 |  5 |   0 |   0 |-1.000000e-09 |      --      |    Inf | unknown
  0.2s|     1 |     0 |   659 |     - |  8605k |   0 | 306 | 113 | 437 | 104 |  6 |   0 |   0 |-1.000000e-09 |      --      |    Inf | unknown
  0.3s|     1 |     0 |   693 |     - |  8638k |   0 | 306 | 113 | 453 | 120 |  7 |   0 |   0 |-1.000000e-09 |      --      |    Inf | unknown
  0.3s|     1 |     0 |   731 |     - |  8652k |   0 | 306 | 113 | 472 | 139 |  8 |   0 |   0 |-1.000000e-09 |      --      |    Inf | unknown
  0.4s|     1 |     0 |   781 |     - |    10M |   0 | 306 | 113 | 487 | 154 |  9 |   0 |   0 |-1.000000e-09 |      --      |    Inf | unknown
  0.4s|     1 |     0 |   823 |     - |    10M |   0 | 306 | 113 | 290 | 169 | 10 |   0 |   0 |-1.000000e-09 |      --      |    Inf | unknown
  0.4s|     1 |     0 |   851 |     - |    10M |   0 | 306 | 113 | 304 | 183 | 11 |   0 |   0 |-1.000000e-09 |      --      |    Inf | unknown
  1.2s|     1 |     0 | 15344 |     - |    12M |   0 | 306 | 113 | 405 | 284 | 11 |   0 |   0 |-1.000000e-09 |      --      |    Inf | unknown
  1.3s|     1 |     0 | 15375 |     - |    14M |   0 | 306 | 113 | 421 | 300 | 12 |   0 |   0 |-1.000000e-09 |      --      |    Inf | unknown
  1.4s|     1 |     0 | 15409 |     - |    16M |   0 | 306 | 113 | 522 | 401 | 13 |   0 |   0 |-1.000000e-09 |      --      |    Inf | unknown
 time | node  | left  |LP iter|LP it/n|mem/heur|mdpt |vars |cons |rows |cuts |sepa|confs|strbr|  dualbound   | primalbound  |  gap   | compl. 
  1.6s|     1 |     0 | 15443 |     - |    16M |   0 | 306 | 113 | 464 | 419 | 14 |   0 |   0 |-1.000000e-09 |      --      |    Inf | unknown
  1.7s|     1 |     0 | 15455 |     - |    19M |   0 | 306 | 113 | 562 | 517 | 15 |   0 |   0 |-1.000000e-09 |      --      |    Inf | unknown
  2.0s|     1 |     0 | 15487 |     - |    20M |   0 | 306 | 113 | 578 | 533 | 16 |   0 |   0 |-1.000000e-09 |      --      |    Inf | unknown
  2.2s|     1 |     0 | 15512 |     - |    23M |   0 | 306 | 113 | 693 | 648 | 17 |   0 |   0 |-1.000000e-09 |      --      |    Inf | unknown
  2.6s|     1 |     0 | 15557 |     - |    23M |   0 | 306 | 113 | 710 | 665 | 18 |   0 |   0 |-1.000000e-09 |      --      |    Inf | unknown
  2.9s|     1 |     0 | 15594 |     - |    27M |   0 | 306 | 113 | 811 | 766 | 19 |   0 |   0 |-1.000000e-09 |      --      |    Inf | unknown
  3.1s|     1 |     0 | 15630 |     - |    27M |   0 | 306 | 113 | 756 | 782 | 20 |   0 |   0 |-1.000000e-09 |      --      |    Inf | unknown
  3.1s|     1 |     0 | 15656 |     - |    27M |   0 | 306 | 113 | 771 | 797 | 21 |   0 |   0 |-1.000000e-09 |      --      |    Inf | unknown
  3.1s|     1 |     0 | 15687 |     - |    27M |   0 | 306 | 113 | 785 | 811 | 22 |   0 |   0 |-1.000000e-09 |      --      |    Inf | unknown
  3.1s|     1 |     0 | 15718 |     - |    27M |   0 | 306 | 113 | 796 | 822 | 23 |   0 |   0 |-1.000000e-09 |      --      |    Inf | unknown
  3.2s|     1 |     0 | 15774 |     - |    27M |   0 | 306 | 113 | 811 | 837 | 24 |   0 |   0 |-1.000000e-09 |      --      |    Inf | unknown
  3.2s|     1 |     0 | 15794 |     - |    27M |   0 | 306 | 113 | 822 | 848 | 25 |   0 |   0 |-1.000000e-09 |      --      |    Inf | unknown
  3.2s|     1 |     0 | 15853 |     - |    27M |   0 | 306 | 113 | 483 | 862 | 26 |   0 |   0 |-1.000000e-09 |      --      |    Inf | unknown
  3.2s|     1 |     0 | 15860 |     - |    27M |   0 | 306 | 113 | 488 | 867 | 27 |   0 |   0 |-1.000000e-09 |      --      |    Inf | unknown
  3.2s|     1 |     0 | 15894 |     - |    27M |   0 | 306 | 113 | 504 | 883 | 28 |   0 |   0 |-1.000000e-09 |      --      |    Inf | unknown
 time | node  | left  |LP iter|LP it/n|mem/heur|mdpt |vars |cons |rows |cuts |sepa|confs|strbr|  dualbound   | primalbound  |  gap   | compl. 
  3.2s|     1 |     0 | 15905 |     - |    27M |   0 | 306 | 113 | 511 | 890 | 29 |   0 |   0 |-1.000000e-09 |      --      |    Inf | unknown
  3.2s|     1 |     0 | 15947 |     - |    27M |   0 | 306 | 113 | 528 | 907 | 30 |   0 |   0 |-1.000000e-09 |      --      |    Inf | unknown
  3.2s|     1 |     0 | 15963 |     - |    27M |   0 | 306 | 113 | 538 | 917 | 31 |   0 |   0 |-1.000000e-09 |      --      |    Inf | unknown
  3.2s|     1 |     0 | 16043 |     - |    27M |   0 | 306 | 113 | 277 | 934 | 32 |   0 |   0 |-1.000000e-09 |      --      |    Inf | unknown
  3.2s|     1 |     0 | 16050 |     - |    27M |   0 | 306 | 113 | 282 | 939 | 33 |   0 |   0 |-1.000000e-09 |      --      |    Inf | unknown
  3.2s|     1 |     0 | 16106 |     - |    27M |   0 | 306 | 113 | 296 | 953 | 34 |   0 |   0 |-1.000000e-09 |      --      |    Inf | unknown
  3.3s|     1 |     0 | 16212 |     - |    27M |   0 | 306 | 113 | 359 |1016 | 35 |   0 |   0 |-1.000000e-09 |      --      |    Inf | unknown
  3.3s|     1 |     0 | 16292 |     - |    27M |   0 | 306 | 113 | 374 |1031 | 36 |   0 |   0 |-1.000000e-09 |      --      |    Inf | unknown
  3.3s|     1 |     0 | 16330 |     - |    27M |   0 | 306 | 113 | 388 |1045 | 37 |   0 |   0 |-1.000000e-09 |      --      |    Inf | unknown
  3.3s|     1 |     0 | 16435 |     - |    27M |   0 | 306 | 113 | 333 |1062 | 38 |   0 |   0 |-1.000000e-09 |      --      |    Inf | unknown
  3.3s|     1 |     0 | 16505 |     - |    27M |   0 | 306 | 113 | 348 |1077 | 39 |   0 |   0 |-1.000000e-09 |      --      |    Inf | unknown
  3.3s|     1 |     0 | 16571 |     - |    27M |   0 | 306 | 113 | 365 |1094 | 40 |   0 |   0 |-1.000000e-09 |      --      |    Inf | unknown
  3.3s|     1 |     0 | 16612 |     - |    27M |   0 | 306 | 113 | 381 |1110 | 41 |   0 |   0 |-1.000000e-09 |      --      |    Inf | unknown
  3.3s|     1 |     0 | 16758 |     - |    27M |   0 | 306 | 113 | 397 |1126 | 42 |   0 |   0 |-1.000000e-09 |      --      |    Inf | unknown
  3.3s|     1 |     0 | 16890 |     - |    27M |   0 | 306 | 113 | 408 |1137 | 43 |   0 |   0 |-1.000000e-09 |      --      |    Inf | unknown
 time | node  | left  |LP iter|LP it/n|mem/heur|mdpt |vars |cons |rows |cuts |sepa|confs|strbr|  dualbound   | primalbound  |  gap   | compl. 
  3.3s|     1 |     0 | 17069 |     - |    27M |   0 | 306 | 113 | 357 |1157 | 44 |   0 |   0 | 1.598478e+02 |      --      |    Inf | unknown
  3.3s|     1 |     0 | 17079 |     - |    27M |   0 | 306 | 113 | 366 |1166 | 45 |   0 |   0 | 1.675709e+02 |      --      |    Inf | unknown
  3.3s|     1 |     0 | 17110 |     - |    27M |   0 | 306 | 113 | 383 |1183 | 46 |   0 |   0 | 4.023634e+02 |      --      |    Inf | unknown
  3.3s|     1 |     0 | 17117 |     - |    27M |   0 | 306 | 113 | 389 |1189 | 47 |   0 |   0 | 4.169097e+02 |      --      |    Inf | unknown
  3.3s|     1 |     0 | 17176 |     - |    27M |   0 | 306 | 113 | 405 |1205 | 48 |   0 |   0 | 6.189560e+02 |      --      |    Inf | unknown
  3.3s|     1 |     0 | 17199 |     - |    27M |   0 | 306 | 113 | 414 |1214 | 49 |   0 |   0 | 6.347043e+02 |      --      |    Inf | unknown
  3.3s|     1 |     0 | 17237 |     - |    27M |   0 | 306 | 113 | 324 |1230 | 50 |   0 |   0 | 7.260065e+02 |      --      |    Inf | unknown
  3.3s|     1 |     0 | 17244 |     - |    27M |   0 | 306 | 113 | 330 |1236 | 51 |   0 |   0 | 7.267009e+02 |      --      |    Inf | unknown
  3.3s|     1 |     0 | 17304 |     - |    27M |   0 | 306 | 113 | 346 |1252 | 52 |   0 |   0 | 1.105189e+03 |      --      |    Inf | unknown
  3.3s|     1 |     0 | 17320 |     - |    27M |   0 | 306 | 113 | 355 |1261 | 53 |   0 |   0 | 1.122770e+03 |      --      |    Inf | unknown
  3.3s|     1 |     0 | 17419 |     - |    27M |   0 | 306 | 113 | 374 |1280 | 54 |   0 |   0 | 1.455478e+03 |      --      |    Inf | unknown
  3.4s|     1 |     0 | 17434 |     - |    27M |   0 | 306 | 113 | 383 |1289 | 55 |   0 |   0 | 1.463777e+03 |      --      |    Inf | unknown
  3.4s|     1 |     0 | 17532 |     - |    27M |   0 | 306 | 113 | 347 |1307 | 56 |   0 |   0 | 1.934813e+03 |      --      |    Inf | unknown
  3.4s|     1 |     0 | 17550 |     - |    27M |   0 | 306 | 113 | 360 |1320 | 57 |   0 |   0 | 1.962640e+03 |      --      |    Inf | unknown
  3.4s|     1 |     0 | 17642 |     - |    27M |   0 | 306 | 113 | 379 |1339 | 58 |   0 |   0 | 2.441181e+03 |      --      |    Inf | unknown
 time | node  | left  |LP iter|LP it/n|mem/heur|mdpt |vars |cons |rows |cuts |sepa|confs|strbr|  dualbound   | primalbound  |  gap   | compl. 
  3.4s|     1 |     0 | 17654 |     - |    27M |   0 | 306 | 113 | 387 |1347 | 59 |   0 |   0 | 2.447332e+03 |      --      |    Inf | unknown
  3.4s|     1 |     0 | 17712 |     - |    27M |   0 | 306 | 113 | 404 |1364 | 60 |   0 |   0 | 2.835467e+03 |      --      |    Inf | unknown
  3.4s|     1 |     0 | 17732 |     - |    27M |   0 | 306 | 113 | 411 |1371 | 61 |   0 |   0 | 2.862276e+03 |      --      |    Inf | unknown
  3.4s|     1 |     0 | 17790 |     - |    27M |   0 | 306 | 113 | 374 |1389 | 62 |   0 |   0 | 3.230823e+03 |      --      |    Inf | unknown
  3.4s|     1 |     0 | 17797 |     - |    27M |   0 | 306 | 113 | 379 |1394 | 63 |   0 |   0 | 3.239355e+03 |      --      |    Inf | unknown
  3.4s|     1 |     0 | 17867 |     - |    27M |   0 | 306 | 113 | 395 |1410 | 64 |   0 |   0 | 3.645219e+03 |      --      |    Inf | unknown
  3.4s|     1 |     0 | 17880 |     - |    27M |   0 | 306 | 113 | 404 |1419 | 65 |   0 |   0 | 3.650948e+03 |      --      |    Inf | unknown
  3.4s|     1 |     0 | 17945 |     - |    27M |   0 | 306 | 113 | 422 |1437 | 66 |   0 |   0 | 4.023301e+03 |      --      |    Inf | unknown
  3.4s|     1 |     0 | 17983 |     - |    27M |   0 | 306 | 113 | 435 |1450 | 67 |   0 |   0 | 4.049240e+03 |      --      |    Inf | unknown
  3.4s|     1 |     0 | 18089 |     - |    27M |   0 | 306 | 113 | 363 |1469 | 68 |   0 |   0 | 4.936137e+03 |      --      |    Inf | unknown
  3.4s|     1 |     0 | 18116 |     - |    27M |   0 | 306 | 113 | 372 |1478 | 69 |   0 |   0 | 4.953697e+03 |      --      |    Inf | unknown
  3.4s|     1 |     0 | 18225 |     - |    27M |   0 | 306 | 113 | 389 |1495 | 70 |   0 |   0 | 5.232944e+03 |      --      |    Inf | unknown
  3.4s|     1 |     0 | 18230 |     - |    27M |   0 | 306 | 113 | 394 |1500 | 71 |   0 |   0 | 5.236453e+03 |      --      |    Inf | unknown
  3.4s|     1 |     0 | 18349 |     - |    27M |   0 | 306 | 113 | 412 |1518 | 72 |   0 |   0 | 5.413561e+03 |      --      |    Inf | unknown
  3.4s|     1 |     0 | 18357 |     - |    27M |   0 | 306 | 113 | 418 |1524 | 73 |   0 |   0 | 5.418251e+03 |      --      |    Inf | unknown
 time | node  | left  |LP iter|LP it/n|mem/heur|mdpt |vars |cons |rows |cuts |sepa|confs|strbr|  dualbound   | primalbound  |  gap   | compl. 
  3.4s|     1 |     0 | 18411 |     - |    27M |   0 | 306 | 113 | 361 |1540 | 74 |   0 |   0 | 5.667948e+03 |      --      |    Inf | unknown
  3.4s|     1 |     0 | 18417 |     - |    27M |   0 | 306 | 113 | 367 |1546 | 75 |   0 |   0 | 5.669933e+03 |      --      |    Inf | unknown
  3.4s|     1 |     0 | 18476 |     - |    27M |   0 | 306 | 113 | 382 |1561 | 76 |   0 |   0 | 5.877525e+03 |      --      |    Inf | unknown
  3.4s|     1 |     0 | 18480 |     - |    27M |   0 | 306 | 113 | 386 |1565 | 77 |   0 |   0 | 5.877946e+03 |      --      |    Inf | unknown
  3.4s|     1 |     0 | 18550 |     - |    27M |   0 | 306 | 113 | 403 |1582 | 78 |   0 |   0 | 5.976522e+03 |      --      |    Inf | unknown
  3.4s|     1 |     0 | 18556 |     - |    27M |   0 | 306 | 113 | 408 |1587 | 79 |   0 |   0 | 5.976903e+03 |      --      |    Inf | unknown
  3.4s|     1 |     0 | 18581 |     - |    27M |   0 | 306 | 113 | 335 |1603 | 80 |   0 |   0 | 6.018362e+03 |      --      |    Inf | unknown
  3.4s|     1 |     0 | 18584 |     - |    27M |   0 | 306 | 113 | 337 |1605 | 81 |   0 |   0 | 6.018484e+03 |      --      |    Inf | unknown
  3.4s|     1 |     0 | 18607 |     - |    27M |   0 | 306 | 113 | 351 |1619 | 82 |   0 |   0 | 6.045847e+03 |      --      |    Inf | unknown
  3.4s|     1 |     0 | 18610 |     - |    27M |   0 | 306 | 113 | 353 |1621 | 83 |   0 |   0 | 6.045913e+03 |      --      |    Inf | unknown
  3.5s|     1 |     0 | 18661 |     - |    27M |   0 | 306 | 113 | 366 |1634 | 84 |   0 |   0 | 6.322818e+03 |      --      |    Inf | unknown
  3.5s|     1 |     0 | 18665 |     - |    27M |   0 | 306 | 113 | 368 |1636 | 85 |   0 |   0 | 6.325052e+03 |      --      |    Inf | unknown
  3.5s|     1 |     0 | 18739 |     - |    27M |   0 | 306 | 113 | 322 |1652 | 86 |   0 |   0 | 6.411028e+03 |      --      |    Inf | unknown
  3.5s|     1 |     0 | 18742 |     - |    27M |   0 | 306 | 113 | 325 |1655 | 87 |   0 |   0 | 6.411651e+03 |      --      |    Inf | unknown
  3.5s|     1 |     0 | 18795 |     - |    27M |   0 | 306 | 113 | 342 |1672 | 88 |   0 |   0 | 6.464849e+03 |      --      |    Inf | unknown
 time | node  | left  |LP iter|LP it/n|mem/heur|mdpt |vars |cons |rows |cuts |sepa|confs|strbr|  dualbound   | primalbound  |  gap   | compl. 
  3.5s|     1 |     0 | 18806 |     - |    27M |   0 | 306 | 113 | 350 |1680 | 89 |   0 |   0 | 6.465095e+03 |      --      |    Inf | unknown
  3.5s|     1 |     0 | 18834 |     - |    27M |   0 | 306 | 113 | 366 |1696 | 90 |   0 |   0 | 6.470863e+03 |      --      |    Inf | unknown
  3.5s|     1 |     0 | 18843 |     - |    27M |   0 | 306 | 113 | 369 |1699 | 91 |   0 |   0 | 6.471814e+03 |      --      |    Inf | unknown
  3.5s|     1 |     0 | 18933 |     - |    27M |   0 | 306 | 113 | 331 |1716 | 92 |   0 |   0 | 6.503811e+03 |      --      |    Inf | unknown
  3.5s|     1 |     0 | 18938 |     - |    27M |   0 | 306 | 113 | 334 |1719 | 93 |   0 |   0 | 6.503961e+03 |      --      |    Inf | unknown
  3.5s|     1 |     0 | 18960 |     - |    27M |   0 | 306 | 113 | 350 |1735 | 94 |   0 |   0 | 6.515407e+03 |      --      |    Inf | unknown
  3.5s|     1 |     0 | 18962 |     - |    27M |   0 | 306 | 113 | 352 |1737 | 95 |   0 |   0 | 6.515436e+03 |      --      |    Inf | unknown
  3.5s|     1 |     0 | 19125 |     - |    27M |   0 | 306 | 113 | 369 |1754 | 96 |   0 |   0 | 6.755185e+03 |      --      |    Inf | unknown
  3.5s|     1 |     0 | 19131 |     - |    27M |   0 | 306 | 113 | 372 |1757 | 97 |   0 |   0 | 6.756900e+03 |      --      |    Inf | unknown
  3.5s|     1 |     0 | 19167 |     - |    27M |   0 | 306 | 113 | 323 |1773 | 98 |   0 |   0 | 6.763281e+03 |      --      |    Inf | unknown
  3.5s|     1 |     0 | 19169 |     - |    27M |   0 | 306 | 113 | 325 |1775 | 99 |   0 |   0 | 6.763396e+03 |      --      |    Inf | unknown
  3.5s|     1 |     0 | 19228 |     - |    27M |   0 | 306 | 113 | 337 |1787 |100 |   0 |   0 | 6.926546e+03 |      --      |    Inf | unknown
  3.5s|     1 |     0 | 19234 |     - |    27M |   0 | 306 | 113 | 342 |1792 |101 |   0 |   0 | 6.927797e+03 |      --      |    Inf | unknown
  3.5s|     1 |     0 | 19263 |     - |    27M |   0 | 306 | 113 | 362 |1812 |102 |   0 |   0 | 6.944504e+03 |      --      |    Inf | unknown
  3.5s|     1 |     0 | 19269 |     - |    27M |   0 | 306 | 113 | 367 |1817 |103 |   0 |   0 | 6.945219e+03 |      --      |    Inf | unknown
 time | node  | left  |LP iter|LP it/n|mem/heur|mdpt |vars |cons |rows |cuts |sepa|confs|strbr|  dualbound   | primalbound  |  gap   | compl. 
  3.5s|     1 |     0 | 19332 |     - |    27M |   0 | 306 | 113 | 328 |1835 |104 |   0 |   0 | 7.005417e+03 |      --      |    Inf | unknown
  3.5s|     1 |     0 | 19337 |     - |    27M |   0 | 306 | 113 | 331 |1838 |105 |   0 |   0 | 7.005529e+03 |      --      |    Inf | unknown
  3.5s|     1 |     0 | 19403 |     - |    27M |   0 | 306 | 113 | 346 |1853 |106 |   0 |   0 | 7.063620e+03 |      --      |    Inf | unknown
  3.5s|     1 |     0 | 19407 |     - |    27M |   0 | 306 | 113 | 349 |1856 |107 |   0 |   0 | 7.063730e+03 |      --      |    Inf | unknown
  3.5s|     1 |     0 | 19424 |     - |    27M |   0 | 306 | 113 | 364 |1871 |108 |   0 |   0 | 7.065464e+03 |      --      |    Inf | unknown
  3.5s|     1 |     0 | 19427 |     - |    27M |   0 | 306 | 113 | 367 |1874 |109 |   0 |   0 | 7.065473e+03 |      --      |    Inf | unknown
  3.5s|     1 |     0 | 19506 |     - |    27M |   0 | 306 | 113 | 329 |1888 |110 |   0 |   0 | 7.143096e+03 |      --      |    Inf | unknown
  3.5s|     1 |     0 | 19515 |     - |    27M |   0 | 306 | 113 | 334 |1893 |111 |   0 |   0 | 7.144184e+03 |      --      |    Inf | unknown
  3.5s|     1 |     0 | 19571 |     - |    27M |   0 | 306 | 113 | 351 |1910 |112 |   0 |   0 | 7.194192e+03 |      --      |    Inf | unknown
  3.5s|     1 |     0 | 19575 |     - |    27M |   0 | 306 | 113 | 354 |1913 |113 |   0 |   0 | 7.194284e+03 |      --      |    Inf | unknown
  3.6s|     1 |     0 | 19697 |     - |    27M |   0 | 306 | 113 | 370 |1929 |114 |   0 |   0 | 7.206887e+03 |      --      |    Inf | unknown
  3.6s|     1 |     0 | 19699 |     - |    27M |   0 | 306 | 113 | 372 |1931 |115 |   0 |   0 | 7.206894e+03 |      --      |    Inf | unknown
  3.6s|     1 |     0 | 19748 |     - |    27M |   0 | 306 | 113 | 323 |1946 |116 |   0 |   0 | 7.216949e+03 |      --      |    Inf | unknown
  3.6s|     1 |     0 | 19749 |     - |    27M |   0 | 306 | 113 | 325 |1948 |117 |   0 |   0 | 7.216950e+03 |      --      |    Inf | unknown
  3.6s|     1 |     0 | 19784 |     - |    27M |   0 | 306 | 113 | 336 |1959 |118 |   0 |   0 | 7.280370e+03 |      --      |    Inf | unknown
 time | node  | left  |LP iter|LP it/n|mem/heur|mdpt |vars |cons |rows |cuts |sepa|confs|strbr|  dualbound   | primalbound  |  gap   | compl. 
  3.6s|     1 |     0 | 19787 |     - |    27M |   0 | 306 | 113 | 338 |1961 |119 |   0 |   0 | 7.280416e+03 |      --      |    Inf | unknown
  3.6s|     1 |     0 | 19822 |     - |    27M |   0 | 306 | 113 | 356 |1979 |120 |   0 |   0 | 7.330081e+03 |      --      |    Inf | unknown
  3.6s|     1 |     0 | 19824 |     - |    27M |   0 | 306 | 113 | 358 |1981 |121 |   0 |   0 | 7.330107e+03 |      --      |    Inf | unknown
  3.6s|     1 |     0 | 19879 |     - |    27M |   0 | 306 | 113 | 323 |1997 |122 |   0 |   0 | 7.334482e+03 |      --      |    Inf | unknown
  3.6s|     1 |     0 | 19882 |     - |    27M |   0 | 306 | 113 | 326 |2000 |123 |   0 |   0 | 7.334490e+03 |      --      |    Inf | unknown
  3.6s|     1 |     0 | 19923 |     - |    27M |   0 | 306 | 113 | 342 |2016 |124 |   0 |   0 | 7.346242e+03 |      --      |    Inf | unknown
  3.6s|     1 |     0 | 19925 |     - |    27M |   0 | 306 | 113 | 343 |2017 |125 |   0 |   0 | 7.346243e+03 |      --      |    Inf | unknown
  3.6s|     1 |     0 | 19959 |     - |    27M |   0 | 306 | 113 | 359 |2033 |126 |   0 |   0 | 7.360935e+03 |      --      |    Inf | unknown
  3.6s|     1 |     0 | 19961 |     - |    27M |   0 | 306 | 113 | 360 |2034 |127 |   0 |   0 | 7.360938e+03 |      --      |    Inf | unknown
  3.6s|     1 |     0 | 20006 |     - |    27M |   0 | 306 | 113 | 325 |2051 |128 |   0 |   0 | 7.366162e+03 |      --      |    Inf | unknown
  3.6s|     1 |     0 | 20007 |     - |    27M |   0 | 306 | 113 | 326 |2052 |129 |   0 |   0 | 7.366162e+03 |      --      |    Inf | unknown
  3.6s|     1 |     0 | 20064 |     - |    27M |   0 | 306 | 113 | 339 |2065 |130 |   0 |   0 | 7.473478e+03 |      --      |    Inf | unknown
  3.6s|     1 |     0 | 20071 |     - |    27M |   0 | 306 | 113 | 342 |2068 |131 |   0 |   0 | 7.473775e+03 |      --      |    Inf | unknown
  3.6s|     1 |     0 | 20105 |     - |    27M |   0 | 306 | 113 | 357 |2083 |132 |   0 |   0 | 7.477859e+03 |      --      |    Inf | unknown
  3.6s|     1 |     0 | 20110 |     - |    27M |   0 | 306 | 113 | 361 |2087 |133 |   0 |   0 | 7.477905e+03 |      --      |    Inf | unknown
 time | node  | left  |LP iter|LP it/n|mem/heur|mdpt |vars |cons |rows |cuts |sepa|confs|strbr|  dualbound   | primalbound  |  gap   | compl. 
  3.6s|     1 |     0 | 20244 |     - |    27M |   0 | 306 | 113 | 325 |2102 |134 |   0 |   0 | 7.486382e+03 |      --      |    Inf | unknown
  3.6s|     1 |     0 | 20251 |     - |    27M |   0 | 306 | 113 | 328 |2105 |135 |   0 |   0 | 7.486405e+03 |      --      |    Inf | unknown
  3.6s|     1 |     0 | 20327 |     - |    27M |   0 | 306 | 113 | 341 |2118 |136 |   0 |   0 | 7.499425e+03 |      --      |    Inf | unknown
  3.6s|     1 |     0 | 20328 |     - |    27M |   0 | 306 | 113 | 342 |2119 |137 |   0 |   0 | 7.499431e+03 |      --      |    Inf | unknown
  3.6s|     1 |     0 | 20377 |     - |    27M |   0 | 306 | 113 | 355 |2132 |138 |   0 |   0 | 7.569715e+03 |      --      |    Inf | unknown
  3.6s|     1 |     0 | 20379 |     - |    27M |   0 | 306 | 113 | 357 |2134 |139 |   0 |   0 | 7.569723e+03 |      --      |    Inf | unknown
  3.6s|     1 |     0 | 20419 |     - |    27M |   0 | 306 | 113 | 325 |2148 |140 |   0 |   0 | 7.572256e+03 |      --      |    Inf | unknown
  3.6s|     1 |     0 | 20420 |     - |    27M |   0 | 306 | 113 | 326 |2149 |141 |   0 |   0 | 7.572256e+03 |      --      |    Inf | unknown
  3.6s|     1 |     0 | 20460 |     - |    27M |   0 | 306 | 113 | 338 |2161 |142 |   0 |   0 | 7.575650e+03 |      --      |    Inf | unknown
  3.6s|     1 |     0 | 20461 |     - |    27M |   0 | 306 | 113 | 339 |2162 |143 |   0 |   0 | 7.575650e+03 |      --      |    Inf | unknown
  3.6s|     1 |     0 | 20520 |     - |    27M |   0 | 306 | 113 | 351 |2174 |144 |   0 |   0 | 7.591267e+03 |      --      |    Inf | unknown
  3.6s|     1 |     0 | 20525 |     - |    27M |   0 | 306 | 113 | 354 |2177 |145 |   0 |   0 | 7.591341e+03 |      --      |    Inf | unknown
  3.6s|     1 |     0 | 20577 |     - |    27M |   0 | 306 | 113 | 323 |2190 |146 |   0 |   0 | 7.603445e+03 |      --      |    Inf | unknown
  3.7s|     1 |     0 | 20578 |     - |    27M |   0 | 306 | 113 | 324 |2191 |147 |   0 |   0 | 7.603446e+03 |      --      |    Inf | unknown
  3.7s|     1 |     0 | 20628 |     - |    27M |   0 | 306 | 113 | 336 |2203 |148 |   0 |   0 | 7.629006e+03 |      --      |    Inf | unknown
 time | node  | left  |LP iter|LP it/n|mem/heur|mdpt |vars |cons |rows |cuts |sepa|confs|strbr|  dualbound   | primalbound  |  gap   | compl. 
  3.7s|     1 |     0 | 20632 |     - |    27M |   0 | 306 | 113 | 340 |2207 |149 |   0 |   0 | 7.629009e+03 |      --      |    Inf | unknown
  3.7s|     1 |     0 | 20701 |     - |    27M |   0 | 306 | 113 | 357 |2224 |150 |   0 |   0 | 7.639053e+03 |      --      |    Inf | unknown
  3.7s|     1 |     0 | 20704 |     - |    27M |   0 | 306 | 113 | 360 |2227 |151 |   0 |   0 | 7.639054e+03 |      --      |    Inf | unknown
  3.7s|     1 |     0 | 20839 |     - |    27M |   0 | 306 | 113 | 330 |2239 |152 |   0 |   0 | 7.663236e+03 |      --      |    Inf | unknown
  3.7s|     1 |     0 | 20847 |     - |    27M |   0 | 306 | 113 | 337 |2246 |153 |   0 |   0 | 7.663243e+03 |      --      |    Inf | unknown
  3.7s|     1 |     0 | 20900 |     - |    27M |   0 | 306 | 113 | 355 |2264 |154 |   0 |   0 | 7.664909e+03 |      --      |    Inf | unknown
  3.7s|     1 |     0 | 20902 |     - |    27M |   0 | 306 | 113 | 357 |2266 |155 |   0 |   0 | 7.664909e+03 |      --      |    Inf | unknown
  3.7s|     1 |     0 | 20966 |     - |    27M |   0 | 306 | 113 | 372 |2281 |156 |   0 |   0 | 7.669901e+03 |      --      |    Inf | unknown
  3.7s|     1 |     2 | 20966 |     - |    27M |   0 | 306 | 113 | 372 |2281 |157 |   0 |   0 | 7.669901e+03 |      --      |    Inf | unknown

SCIP Status        : solving was interrupted [node limit reached]
Solving Time (sec) : 3.69
Solving Nodes      : 1
Primal Bound       : +1.00000000000000e+20 (0 solutions)
Dual Bound         : +7.66990111314136e+03
Gap                : infinite


SCIP Status        : solving was interrupted [node limit reached]
Total Time         :       3.70
  solving          :       3.69
  presolving       :       0.01 (included in solving)
  reading          :       0.01
  copying          :       0.00 (1 #copies) (minimal 0.00, maximal 0.00, average 0.00)
Original Problem   :
  Problem name     : powerflow0014r
  Variables        : 119 (0 binary, 0 integer, 119 continuous)
  Implied int vars : 0 (0 binary, 0 integer, 0 continuous)
  Constraints      : 198 initial, 198 maximal
  Objective        : minimize, 6 non-zeros (abs.min = 1, abs.max = 4000)
Presolved Problem  :
  Problem name     : t_powerflow0014r
  Variables        : 306 (0 binary, 0 integer, 306 continuous)
  Implied int vars : 0 (0 binary, 0 integer, 0 continuous)
  Constraints      : 113 initial, 113 maximal
  Objective        : minimize, 6 non-zeros (abs.min = 1, abs.max = 4000)
  Nonzeros         : 491 constraint, 0 clique table
Presolvers         :   ExecTime  SetupTime  Calls  FixedVars   AggrVars   ChgTypes  ChgBounds   AddHoles    DelCons    AddCons   ChgSides   ChgCoefs
  boundshift       :       0.00       0.00      0          0          0          0          0          0          0          0          0          0
  convertinttobin  :       0.00       0.00      0          0          0          0          0          0          0          0          0          0
  domcol           :       0.00       0.00      1          0          0          0          0          0          0          0          0          0
  dualagg          :       0.00       0.00      0          0          0          0          0          0          0          0          0          0
  dualcomp         :       0.00       0.00      1          0          0          0          0          0          0          0          0          0
  dualinfer        :       0.00       0.00      0          0          0          0          0          0          0          0          0          0
  dualsparsify     :       0.00       0.00      1          0          0          0          0          0          0          0          0          0
  gateextraction   :       0.00       0.00      0          0          0          0          0          0          0          0          0          0
  implics          :       0.00       0.00      1          0          0          0          0          0          0          0          0          0
  implint          :       0.00       0.00      0          0          0          0          0          0          0          0          0          0
  inttobinary      :       0.00       0.00      0          0          0          0          0          0          0          0          0          0
  qpkktref         :       0.00       0.00      0          0          0          0          0          0          0          0          0          0
  redvub           :       0.00       0.00      0          0          0          0          0          0          0          0          0          0
  sparsify         :       0.00       0.00      1          0          0          0          0          0          0          0          0          0
  stuffing         :       0.00       0.00      0          0          0          0          0          0          0          0          0          0
  trivial          :       0.00       0.00      3          0          0          0          0          0          0          0          0          0
  tworowbnd        :       0.00       0.00      0          0          0          0          0          0          0          0          0          0
  dualfix          :       0.00       0.00      3          0          0          0          0          0          0          0          0          0
  genvbounds       :       0.00       0.00      0          0          0          0          0          0          0          0          0          0
  probing          :       0.00       0.00      0          0          0          0          0          0          0          0          0          0
  pseudoobj        :       0.00       0.00      0          0          0          0          0          0          0          0          0          0
  symmetry         :       0.00       0.00      1          0          0          0          0          0          0          0          0          0
  vbounds          :       0.00       0.00      0          0          0          0          0          0          0          0          0          0
  linear           :       0.00       0.00      4          1         14          0         54          0         31          0          0          0
  nonlinear        :       0.01       0.00      5          0          0          0        340          0         40          0          0          0
  components       :       0.00       0.00      1          0          0          0          0          0          0          0          0          0
  root node        :          -          -      -          0          -          -        189          -          -          -          -          -
Constraints        :     Number  MaxNumber  #Separate #Propagate    #EnfoLP    #EnfoRelax  #EnfoPS    #Check   #ResProp    Cutoffs    DomReds       Cuts    Applied      Conss   Children
  integral         :          0          0          0          0          0          0          0          9          0          0          0          0          0          0          0
  linear           :         18         18         84        120          0          0          0          9          0          0          0          0          0          0          0
  nonlinear        :         95         95         84        120         74          0          0          1          0         28          0       2909       1064          0          2
  fixedvar         :          0          0          0          0          0          0          0          0          0          0          0          0          0          0          0
  countsols        :          0          0          0          0          0          0          0          0          0          0          0          0          0          0          0
  components       :          0          0          0          0          0          0          0          0          0          0          0          0          0          0          0
Constraint Timings :  TotalTime  SetupTime   Separate  Propagate     EnfoLP     EnfoPS     EnfoRelax   Check    ResProp    SB-Prop
  integral         :       0.00       0.00       0.00       0.00       0.00       0.00       0.00       0.00       0.00       0.00
  linear           :       0.00       0.00       0.00       0.00       0.00       0.00       0.00       0.00       0.00       0.00
  nonlinear        :       2.35       0.00       1.34       0.03       0.98       0.00       0.00       0.00       0.00       0.00
  fixedvar         :       0.00       0.00       0.00       0.00       0.00       0.00       0.00       0.00       0.00       0.00
  countsols        :       0.00       0.00       0.00       0.00       0.00       0.00       0.00       0.00       0.00       0.00
  components       :       0.00       0.00       0.00       0.00       0.00       0.00       0.00       0.00       0.00       0.00
Propagators        : #Propagate   #ResProp    Cutoffs    DomReds
  dualfix          :          1          0          0          0
  genvbounds       :          0          0          0          0
  nlobbt           :          0          0          0          0
  obbt             :        150          0          0          0
  probing          :          0          0          0          0
  pseudoobj        :          0          0          0          0
  redcost          :          0          0          0          0
  rootredcost      :          0          0          0          0
  symmetry         :          0          0          0          0
  vbounds          :          0          0          0          0
Propagator Timings :  TotalTime  SetupTime   Presolve  Propagate    ResProp    SB-Prop
  dualfix          :       0.00       0.00       0.00       0.00       0.00       0.00
  genvbounds       :       0.00       0.00       0.00       0.00       0.00       0.00
  nlobbt           :       0.00       0.00       0.00       0.00       0.00       0.00
  obbt             :       0.71       0.00       0.00       0.71       0.00       0.00
  probing          :       0.00       0.00       0.00       0.00       0.00       0.00
  pseudoobj        :       0.00       0.00       0.00       0.00       0.00       0.00
  redcost          :       0.00       0.00       0.00       0.00       0.00       0.00
  rootredcost      :       0.01       0.00       0.00       0.01       0.00       0.00
  symmetry         :       0.00       0.00       0.00       0.00       0.00       0.00
  vbounds          :       0.00       0.00       0.00       0.00       0.00       0.00
Conflict Analysis  :       Time      Calls    Success    DomReds  Conflicts   Literals    Reconvs ReconvLits   Dualrays   Nonzeros   LP Iters   (pool size: [--,--])
  propagation      :       0.00          0          0          -          0        0.0          0        0.0          -          -          -
  infeasible LP    :       0.00          0          0          -          0        0.0          0        0.0          0        0.0          0
  bound exceed. LP :       0.00          0          0          -          0        0.0          0        0.0          0        0.0          0
  strong branching :       0.00          0          0          -          0        0.0          0        0.0          -          -          0
  pseudo solution  :       0.00          0          0          -          0        0.0          0        0.0          -          -          -
  applied globally :       0.00          -          -          0          0        0.0          -          -          0          -          -
  applied locally  :          -          -          -          0          0        0.0          -          -          0          -          -
Gen. Resolution CA :       Time      Calls    Success  Conflicts  LargeCoef  LongConfs    Length
  propagation      :       0.00          0          0          0          0          0       0.0
Separators         :   ExecTime  SetupTime      Calls  RootCalls    Cutoffs    DomReds  FoundCuts ViaPoolAdd  DirectAdd    Applied ViaPoolApp  DirectApp      Conss
  cut pool         :       0.00          -          0          0          -          -          0          0          -          -          -          -          -    (maximal pool size:          0)
  aggregation      :       0.00       0.00          0          0          0          0          0          0          0          0          0          0          0
  > cmir           :          -          -          -          -          -          -          -          0          0          0          0          0          -
  > flowcover      :          -          -          -          -          -          -          -          0          0          0          0          0          -
  > knapsackcover  :          -          -          -          -          -          -          -          0          0          0          0          0          -
  cgmip            :       0.00       0.00          0          0          0          0          0          0          0          0          0          0          0
  clique           :       0.00       0.00          0          0          0          0          0          0          0          0          0          0          0
  closecuts        :       0.00       0.00          0          0          0          0          0          0          0          0          0          0          0
  convexproj       :       0.00       0.00          0          0          0          0          0          0          0          0          0          0          0
  disjunctive      :       0.00       0.00          0          0          0          0          0          0          0          0          0          0          0
  eccuts           :       0.00       0.00          0          0          0          0          0          0          0          0          0          0          0
  flower           :       0.00       0.00         84         84          0          0          0          0          0          0          0          0          0
  gauge            :       0.00       0.00          0          0          0          0          0          0          0          0          0          0          0
  gomory           :       0.00       0.00          0          0          0          0          0          0          0          0          0          0          0
  > gomorymi       :          -          -          -          -          -          -          -          0          0          0          0          0          -
  > strongcg       :          -          -          -          -          -          -          -          0          0          0          0          0          -
  impliedbounds    :       0.00       0.00          0          0          0          0          0          0          0          0          0          0          0
  interminor       :       0.00       0.00          0          0          0          0          0          0          0          0          0          0          0
  intobj           :       0.00       0.00          0          0          0          0          0          0          0          0          0          0          0
  lagromory        :       0.00       0.00          0          0          0          0          0          0          0          0          0          0          0
  mcf              :       0.00       0.00          0          0          0          0          0          0          0          0          0          0          0
  minor            :       0.11       0.00         84         84          0          0       5265          0       5265       1217          0       1217          0
  mixing           :       0.00       0.00         84         84          0          0          0          0          0          0          0          0          0
  oddcycle         :       0.00       0.00          0          0          0          0          0          0          0          0          0          0          0
  rapidlearning    :       0.00       0.00          0          0          0          0          0          0          0          0          0          0          0
  rlt              :       0.00       0.00         10         10          0          0          0          0          0          0          0          0          0
  zerohalf         :       0.00       0.00          0          0          0          0          0          0          0          0          0          0          0
Cutselectors       :   ExecTime  SetupTime      Calls  RootCalls   Selected     Forced   Filtered  RootSelec   RootForc   RootFilt 
  hybrid           :       0.00       0.00         84         84       1347          0       5884       1347          0       5884
  ensemble         :       0.00       0.00          0          0          0          0          0          0          0          0
  dynamic          :       0.00       0.00          0          0          0          0          0          0          0          0
Pricers            :   ExecTime  SetupTime      Calls       Vars
  problem variables:       0.00          -          0          0
Branching Rules    :   ExecTime  SetupTime   BranchLP  BranchExt   BranchPS    Cutoffs    DomReds       Cuts      Conss   Children
  allfullstrong    :       0.00       0.00          0          0          0          0          0          0          0          0
  cloud            :       0.00       0.00          0          0          0          0          0          0          0          0
  distribution     :       0.00       0.00          0          0          0          0          0          0          0          0
  fullstrong       :       0.00       0.00          0          0          0          0          0          0          0          0
  gomory           :       0.00       0.00          0          0          0          0          0          0          0          0
  inference        :       0.00       0.00          0          0          0          0          0          0          0          0
  leastinf         :       0.00       0.00          0          0          0          0          0          0          0          0
  lookahead        :       0.00       0.00          0          0          0          0          0          0          0          0
  mostinf          :       0.00       0.00          0          0          0          0          0          0          0          0
  multaggr         :       0.00       0.00          0          0          0          0          0          0          0          0
  nodereopt        :       0.00       0.00          0          0          0          0          0          0          0          0
  pscost           :       0.00       0.00          0          0          0          0          0          0          0          0
  random           :       0.00       0.00          0          0          0          0          0          0          0          0
  relpscost        :       0.00       0.00          0          0          0          0          0          0          0          0
  vanillafullstrong:       0.00       0.00          0          0          0          0          0          0          0          0
Primal Heuristics  :   ExecTime  SetupTime      Calls      Found       Best
  LP solutions     :       0.00          -          -          0          0
  relax solutions  :       0.00          -          -          0          0
  pseudo solutions :       0.00          -          -          0          0
  strong branching :       0.00          -          -          0          0
  actconsdiving    :       0.00       0.00          0          0          0
  adaptivediving   :       0.00       0.00          0          0          0
  alns             :       0.01       0.00          1          0          0
  bound            :       0.00       0.00          0          0          0
  clique           :       0.00       0.00          0          0          0
  coefdiving       :       0.00       0.00          0          0          0
  completesol      :       0.00       0.00          0          0          0
  conflictdiving   :       0.00       0.00          0          0          0
  crossover        :       0.00       0.00          0          0          0
  dins             :       0.00       0.00          0          0          0
  distributiondivin:       0.00       0.00          0          0          0
  dks              :       0.00       0.00          0          0          0
  dps              :       0.00       0.00          0          0          0
  dualval          :       0.00       0.00          0          0          0
  farkasdiving     :       0.00       0.00          0          0          0
  feaspump         :       0.00       0.00          0          0          0
  fixandinfer      :       0.00       0.00          0          0          0
  fracdiving       :       0.00       0.00          0          0          0
  gins             :       0.00       0.00          0          0          0
  guideddiving     :       0.00       0.00          0          0          0
  indicator        :       0.00       0.00          0          0          0
  indicatordiving  :       0.00       0.00          0          0          0
  intdiving        :       0.00       0.00          0          0          0
  intshifting      :       0.00       0.00          0          0          0
  linesearchdiving :       0.00       0.00          0          0          0
  localbranching   :       0.00       0.00          0          0          0
  locks            :       0.00       0.00          0          0          0
  lpface           :       0.00       0.00          0          0          0
  mpec             :       0.00       0.00          0          0          0
  multistart       :       0.00       0.00          0          0          0
  mutation         :       0.00       0.00          0          0          0
  nlpdiving        :       0.00       0.00          0          0          0
  objpscostdiving  :       0.00       0.00          0          0          0
  octane           :       0.00       0.00          0          0          0
  ofins            :       0.00       0.00          0          0          0
  oneopt           :       0.00       0.00          0          0          0
  padm             :       0.00       0.00          0          0          0
  proximity        :       0.00       0.00          0          0          0
  pscostdiving     :       0.00       0.00          0          0          0
  randrounding     :       0.00       0.00          0          0          0
  rens             :       0.00       0.00          0          0          0
  reoptsols        :       0.00       0.00          0          0          0
  repair           :       0.00       0.00          0          0          0
  rins             :       0.00       0.00          0          0          0
  rootsoldiving    :       0.00       0.00          0          0          0
  rounding         :       0.00       0.00          0          0          0
  scheduler        :       0.00       0.00          0          0          0
  shiftandpropagate:       0.00       0.00          0          0          0
  shifting         :       0.00       0.00          0          0          0
  simplerounding   :       0.00       0.00          0          0          0
  subnlp           :       0.00       0.00          0          0          0
  trivial          :       0.00       0.00          2          0          0
  trivialnegation  :       0.00       0.00          0          0          0
  trustregion      :       0.00       0.00          0          0          0
  trysol           :       0.00       0.00          0          0          0
  twoopt           :       0.00       0.00          0          0          0
  undercover       :       0.05       0.00          1          0          0
  vbounds          :       0.00       0.00          0          0          0
  veclendiving     :       0.00       0.00          0          0          0
  zeroobj          :       0.00       0.00          0          0          0
  zirounding       :       0.00       0.00          0          0          0
  other solutions  :          -          -          -          0          -
LNS (Scheduler)    :      Calls  SetupTime  SolveTime SolveNodes       Sols       Best       Exp3    Exp3-IX  EpsGreedy        UCB TgtFixRate  Opt  Inf Node Stal  Sol  Usr Othr Actv
  zeroobjective    :          0       0.00       0.00          0          0          0    0.00000    1.00000   -1.00000    1.00000      0.900    0    0    0    0    0    0    0    1
  rens             :          0       0.00       0.00          0          0          0    0.00000    0.00000   -1.00000    1.00000      0.900    0    0    0    0    0    0    0    0
  rins             :          0       0.00       0.00          0          0          0    0.00000    0.00000   -1.00000    1.00000      0.900    0    0    0    0    0    0    0    0
  mutation         :          0       0.00       0.00          0          0          0    0.00000    0.00000   -1.00000    1.00000      0.900    0    0    0    0    0    0    0    0
  localbranching   :          0       0.00       0.00          0          0          0    0.00000    0.00000   -1.00000    1.00000      0.900    0    0    0    0    0    0    0    0
  crossover        :          0       0.00       0.00          0          0          0    0.00000    0.00000   -1.00000    1.00000      0.900    0    0    0    0    0    0    0    0
  proximity        :          0       0.00       0.00          0          0          0    0.00000    0.00000   -1.00000    1.00000      0.900    0    0    0    0    0    0    0    0
  dins             :          0       0.00       0.00          0          0          0    0.00000    0.00000   -1.00000    1.00000      0.900    0    0    0    0    0    0    0    0
  trustregion      :          0       0.00       0.00          0          0          0    0.00000    0.00000   -1.00000    1.00000      0.900    0    0    0    0    0    0    0    0
Expressions        :   #IntEval  IntEvalTi   #RevProp  RevPropTi    DomReds    Cutoffs  #Estimate  EstimTime  Branching  #Simplify SimplifyTi Simplified
  pow              :       4127       0.00        549       0.00        298          0      13893       0.00       1774        656       0.00         14
  prod             :       1372       0.00         88       0.00         19          0      27412       0.00       5619        816       0.01         24
  sum              :       2278       0.00       1462       0.00        417          0         95       0.00          0        402       0.00        119
  val              :          0       0.00          0       0.00          0          0          0       0.00          0          0       0.00          0
  var              :       6727       0.00          0       0.00          0          0          0       0.00          0       2426       0.00         42
Nlhdlrs            :    Detects  DetectAll DetectTime   #IntEval  IntEvalTi   #RevProp  RevPropTi    DomReds    Cutoffs   #Enforce   EnfoTime       Cuts  Branching
  soc              :          0          0       0.00          0       0.00          0       0.00          0          0          0       0.00          0          0
  convex           :          0          0       0.00          0       0.00          0       0.00          0          0          0       0.00          0          0
  concave          :          0          0       0.00          0       0.00          0       0.00          0          0          0       0.00          0          0
  signomial        :          0          0       0.00          0       0.00          0       0.00          0          0          0       0.00          0          0
  quotient         :          0          0       0.00          0       0.00          0       0.00          0          0          0       0.00          0          0
  quadratic        :         93        447       0.00       5487       0.00       5058       0.00       2066         19      14629       2.21       1849          0
  default          :        333       1366       0.00       6968       0.00       2411       0.01        734          1      41297       0.04       1060          0
  bilinear         :         76         76       0.00        796       0.00         68       0.00          0          0      26908       0.00          0          0
  perspective      :          0          0       0.00          0       0.00          0       0.00          0          0          0       0.00          0          0
Quadratic Nlhdlr   :    GenCuts    AddCuts  CouldImpr   NLargeRE AbrtBadRay AbrtPosPhi AbrtNonBas  NStrength  NMonoidal AveCutcoef    AveMonoidalImprov AveDensity AveEfficacy AveBCutsFrac 
  Quadratic Nlhdlr :       1860       1849          0         11         16          0          0          0          0   0.714529                   -1   0.489846  0.0897204          0
Quadratic SetSel   :       Rule      Calls    Changed   Fallback      Evals    AveGain IntercutTime   SelectTime    Applied     Active   RootAppl
  Quadratic SetSel :          0          0          0          0          0          0       2.0000       0.0000        484          0        484
LP                 :       Time      Calls Iterations  Iter/call   Iter/sec  Time-0-It Calls-0-It
  primal LP        :       0.01         25          0       0.00       0.00       0.01         25
  dual LP          :       0.37        158       6505      41.17   17581.08       0.00          0
  lex dual LP      :       0.00          0          0       0.00          -
  barrier LP       :       0.00          0          0       0.00          -       0.00          0
  resolve instable :       0.00          0          0       0.00          -
  diving/probing LP:       0.65        200      14461      72.31   22247.69
  strong branching :       0.00          0          0       0.00          -          -          -          0
    (at root node) :          -          0          0       0.00          -
  conflict analysis:       0.00          0          0       0.00          -
NLP relaxation     :
  solve time       :       0.00 (0 calls)
  convexity        :  nonconvex (18 linear rows, 1 convex ineq., 0 nonconvex ineq., 94 nonlinear eq. or two-sided ineq.)
Relaxators         :       Time      Calls    Cutoffs ImprBounds   ImprTime ReducedDom  Separated AddedConss
  benders          :       0.00          0          0          0       0.00          0          0          0
B&B Tree           :
  number of runs   :          1
  nodes            :          1 (1 internal, 0 leaves)
  feasible leaves  :          0
  infeas. leaves   :          0
  objective leaves :          0
  nodes (total)    :          1 (1 internal, 0 leaves)
  nodes left       :          2
  max depth        :          0
  max depth (total):          0
  backtracks       :          0 (0.0%)
  early backtracks :          0 (0.0%)
  nodes exc. ref.  :          0 (0.0%)
  delayed cutoffs  :          0
  repropagations   :          0 (0 domain reductions, 0 cutoffs)
  avg switch length:       1.00
  switching time   :       0.00
Root Node          :
  First LP value   : -1.00000000000000e-09
  First LP Iters   :        226
  First LP Time    :       0.00
  Final Dual Bound : +7.66990111314136e+03
  Final Root Iters :       6509
  Root LP Estimate : +7.66990111314136e+03
Solution           :
  Solutions found  :          0 (0 improvements)
  Primal Bound     :          -
  Dual Bound       : +7.66990111314136e+03
  Gap              :   infinite
Integrals          :      Total       Avg%
  primal-dual      :     369.00     100.00
  primal-ref       :          -          - (not evaluated)
  dual-ref         :          -          - (not evaluated)



@@ wallclock 4.07 returncode 0
